Version 4
SHEET 1 880 680
WIRE 48 -112 -32 -112
WIRE 384 -112 48 -112
WIRE 480 -112 384 -112
WIRE -32 -80 -32 -112
WIRE 480 32 480 -112
WIRE 80 64 -32 64
WIRE 384 64 384 -112
WIRE 384 64 304 64
WIRE 80 128 16 128
WIRE 480 128 480 112
WIRE 480 128 304 128
WIRE 480 144 480 128
WIRE 80 192 -80 192
WIRE 432 192 304 192
WIRE 48 256 48 -112
WIRE 80 256 48 256
WIRE 384 256 304 256
WIRE 16 320 16 128
WIRE 432 320 432 192
WIRE 432 320 16 320
WIRE 480 320 480 224
WIRE 480 320 432 320
WIRE 384 336 384 256
WIRE 480 336 480 320
WIRE -32 432 -32 64
WIRE 384 432 384 400
WIRE 384 432 -32 432
WIRE 480 432 480 400
WIRE 480 432 384 432
WIRE -32 464 -32 432
FLAG -32 464 0
FLAG -32 0 0
FLAG -80 192 output
IOPIN -80 192 Out
SYMBOL Misc\\NE555 192 160 R0
SYMATTR InstName U1
SYMBOL Misc\\EuropeanCap 464 336 R0
SYMATTR InstName C1
SYMATTR Value 10n
SYMBOL Misc\\EuropeanCap 368 336 R0
SYMATTR InstName C2
SYMATTR Value 10n
SYMBOL res 464 16 R0
SYMATTR InstName R1
SYMATTR Value 1K
SYMBOL res 464 128 R0
SYMATTR InstName R2
SYMATTR Value 50K
SYMBOL voltage -32 -96 R0
WINDOW 123 0 0 Left 0
WINDOW 39 0 0 Left 0
SYMATTR InstName Vcc
SYMATTR Value 5
TEXT -288 488 Left 2 !.tran 0 0.01 0 1u
