Version 4
SHEET 1 880 680
WIRE 0 208 0 112
WIRE 560 208 560 112
WIRE 560 208 0 208
SYMBOL CD4000\\CD4049B 48 48 R0
SYMATTR InstName U1
SYMBOL CD4000\\CD4049B 160 48 R0
SYMATTR InstName U2
SYMBOL CD4000\\CD4049B 272 48 R0
SYMATTR InstName U3
SYMBOL CD4000\\CD4049B 384 48 R0
SYMATTR InstName U4
SYMBOL CD4000\\CD4049B 496 48 R0
SYMATTR InstName U5
TEXT -8 232 Left 2 !.tran 0 1u 0 1n
TEXT 192 32 Left 2 !.lib CD4000.lib
