Version 4
SHEET 1 880 680
WIRE 80 -48 0 -48
WIRE 224 -48 160 -48
WIRE 96 96 48 96
WIRE 0 112 0 -48
WIRE 48 112 48 96
WIRE 48 112 0 112
WIRE 224 112 224 -48
WIRE 224 112 208 112
WIRE 288 112 224 112
WIRE 48 128 48 112
WIRE 96 128 48 128
WIRE 0 160 0 112
WIRE 0 272 0 224
FLAG 0 272 0
FLAG 288 112 +output
IOPIN 288 112 Out
SYMBOL CD4000\\CD4093B 144 48 R0
SYMATTR InstName U1
SYMBOL res 64 -32 R270
WINDOW 0 32 56 VTop 2
WINDOW 3 0 56 VBottom 2
SYMATTR InstName R
SYMATTR Value 470
SYMBOL cap -16 160 R0
SYMATTR InstName C
SYMATTR Value 10n
TEXT -264 312 Left 2 !.tran 0 0.1m 0 1u
TEXT 32 -120 Left 2 !.lib CD4000.lib
