Version 4
SHEET 1 2356 680
WIRE 800 -96 560 -96
WIRE 2160 -80 2144 -80
WIRE 2208 -80 2160 -80
WIRE 800 -64 768 -64
WIRE 2160 -48 2160 -80
WIRE 2032 64 2032 -80
WIRE 2032 64 752 64
WIRE 2160 64 2160 32
WIRE 560 80 560 -96
WIRE 560 80 448 80
WIRE -112 176 -112 80
WIRE 448 176 448 80
WIRE 448 176 -112 176
WIRE 768 176 768 -64
WIRE 2032 176 768 176
WIRE 752 288 752 64
WIRE 800 288 752 288
WIRE 2032 304 2032 176
WIRE 2160 304 2144 304
WIRE 2208 304 2160 304
WIRE 560 320 560 80
WIRE 592 320 560 320
WIRE 800 320 704 320
WIRE 2160 352 2160 304
WIRE 2160 464 2160 432
FLAG 2160 64 0
FLAG 2160 464 0
FLAG 2208 -80 Phase1
IOPIN 2208 -80 Out
FLAG 2208 304 Phase2
IOPIN 2208 304 Out
SYMBOL CD4000\\CD4049B -64 16 R0
SYMATTR InstName U1
SYMBOL CD4000\\CD4049B 48 16 R0
SYMATTR InstName U2
SYMBOL CD4000\\CD4049B 160 16 R0
SYMATTR InstName U3
SYMBOL CD4000\\CD4049B 272 16 R0
SYMATTR InstName U4
SYMBOL CD4000\\CD4049B 384 16 R0
SYMATTR InstName U5
SYMBOL CD4000\\CD4049B 960 -144 R0
SYMATTR InstName U6
SYMBOL CD4000\\CD4049B 1072 -144 R0
SYMATTR InstName U7
SYMBOL CD4000\\CD4049B 1184 -144 R0
SYMATTR InstName U8
SYMBOL CD4000\\CD4049B 1296 -144 R0
SYMATTR InstName U9
SYMBOL CD4000\\CD4049B 1408 -144 R0
SYMATTR InstName U10
SYMBOL CD4000\\CD4049B 1520 -144 R0
SYMATTR InstName U11
SYMBOL CD4000\\CD4049B 1632 -144 R0
SYMATTR InstName U12
SYMBOL CD4000\\CD4049B 1744 -144 R0
SYMATTR InstName U13
SYMBOL CD4000\\CD4049B 1856 -144 R0
SYMATTR InstName U14
SYMBOL CD4000\\CD4049B 1968 -144 R0
SYMATTR InstName U15
SYMBOL CD4000\\CD4049B 960 240 R0
SYMATTR InstName U16
SYMBOL CD4000\\CD4049B 1072 240 R0
SYMATTR InstName U17
SYMBOL CD4000\\CD4049B 1184 240 R0
SYMATTR InstName U18
SYMBOL CD4000\\CD4049B 1296 240 R0
SYMATTR InstName U19
SYMBOL CD4000\\CD4049B 1408 240 R0
SYMATTR InstName U20
SYMBOL CD4000\\CD4049B 1520 240 R0
SYMATTR InstName U21
SYMBOL CD4000\\CD4049B 1632 240 R0
SYMATTR InstName U22
SYMBOL CD4000\\CD4049B 1744 240 R0
SYMATTR InstName U23
SYMBOL CD4000\\CD4049B 1856 240 R0
SYMATTR InstName U24
SYMBOL CD4000\\CD4049B 1968 240 R0
SYMATTR InstName U25
SYMBOL CD4000\\CD4001B 848 -144 R0
SYMATTR InstName U26
SYMBOL CD4000\\CD4001B 848 240 R0
SYMATTR InstName U27
SYMBOL CD4000\\CD4049B 640 256 R0
SYMATTR InstName U28
SYMBOL res 2144 -64 R0
SYMATTR InstName R1
SYMATTR Value 1000K
SYMBOL res 2144 336 R0
SYMATTR InstName R2
SYMATTR Value 1000K
SYMBOL CD4000\\CD4049B 2080 240 R0
SYMATTR InstName U29
SYMBOL CD4000\\CD4049B 2080 -144 R0
SYMATTR InstName U30
TEXT -118 488 Left 2 !.tran 0 10u 0 1u
TEXT 1192 -232 Left 2 !.lib CD4000.lib
